[TITLE]
;;Project Title/Notes
Bellinge_2015

[OPTIONS]
;;Option             Value
FLOW_UNITS           CMS
INFILTRATION         HORTON
FLOW_ROUTING         DYNWAVE
LINK_OFFSETS         DEPTH
MIN_SLOPE            0
ALLOW_PONDING        YES
SKIP_STEADY_STATE    NO

START_DATE           08/29/2015
START_TIME           00:00:00
REPORT_START_DATE    08/29/2015
REPORT_START_TIME    04:00:00
END_DATE             09/02/2015
END_TIME             23:59:00
SWEEP_START          1/1
SWEEP_END            12/31
DRY_DAYS             0
REPORT_STEP          0:05:00
WET_STEP             0:05:00
DRY_STEP             0:15:00
ROUTING_STEP         0:01:00 
RULE_STEP            00:00:00

INERTIAL_DAMPING     PARTIAL
NORMAL_FLOW_LIMITED  BOTH
FORCE_MAIN_EQUATION  H-W
VARIABLE_STEP        0.75
LENGTHENING_STEP     20
MIN_SURFAREA         0
MAX_TRIALS           0
HEAD_TOLERANCE       0
SYS_FLOW_TOL         5
LAT_FLOW_TOL         5
MINIMUM_STEP         0.5
THREADS              4

[EVAPORATION]
;;Data Source    Parameters
;;-------------- ----------------
CONSTANT         0
DRY_ONLY         NO

[RAINGAGES]
;;Name           Format    Interval SCF      Source    
;;-------------- --------- ------ ------ ----------
rg5425           VOLUME    00:01    1        FILE       "rg_bellinge_Apr2020.dat" rg5425     MM   
rg5427           VOLUME    00:01    1        FILE       "rg_bellinge_Apr2020.dat" rg5427     MM   

[SUBCATCHMENTS]
;;Name           Rain Gage        Outlet           Area     %Imperv  Width    %Slope   CurbLen  SnowPack        
;;-------------- ---------------- ---------------- -------- -------- -------- -------- -------- ----------------
BellAa_1358_17896_6 rg5425           G72R84B          1.258    1.92     112.183  0.03     0                        
G72R272_8122     rg5425           G72R272          0.107    54.150000000000006 437.2480000000001 0.03     0                        
G72R280_8123     rg5425           G72R280          0.227    23.580000000000002 50.262   0.03     0                        
G72R290_8124     rg5425           G72R290          0.17     0.0      35.319   0.03     0                        
G72R291_8125     rg5425           G72R291          0.237    27.790000000000006 53.486   0.03     0                        
G72R292_8126     rg5425           G72R292          0.104    37.88    22.169   0.03     0                        
G72R293_8127     rg5425           G72R293          0.136    24.51000000000001 34.052   0.03     0                        
G72R294_8128     rg5425           G72R294          0.254    20.299999999999997 49.688   0.03     0                        
G72R295_8129     rg5425           G72R295          0.28800000000000003 33.19    106.869  0.03     0                        
G72R310_8130     rg5425           G72R310          0.226    40.62    31.364   0.03     0                        
G72R330_8131     rg5425           G72R330          0.384    43.98    334.601  0.03     0                        
G72R332_8132     rg5425           G72R332          0.16899999999999998 42.660000000000004 78.714   0.03     0                        
G72R333_8133     rg5425           G72R333          0.153    33.2     262.652  0.03     0                        
G72R335_8134     rg5425           G72R335          0.174    31.68    40.294   0.03     0                        
G72R33B_8135     rg5425           G72R33B          0.914    1.47     95.614   0.03     0                        
G72R340_8136     rg5425           G72R340          0.385    27.830000000000002 60.825   0.03     0                        
G72R360_8137     rg5425           G72R360          0.4920000000000001 30.0     135.36   0.03     0                        
G72R370_8138     rg5425           G72R370          0.695    43.22    78.836   0.03     0                        
G72R380_8139     rg5425           G72R380          0.462    44.01    37.963   0.03     0                        
G72R390_8140     rg5425           G72R390          0.583    41.88000000000001 43.542   0.03     0                        
G72R641_8141     rg5425           G72R641          0.049    58.400000000000006 34.329   0.03     0                        
G72R642_8142     rg5425           G72R642          0.131    0.0      26.308000000000003 0.03     0                        
G72R645_8143     rg5425           G72R645          0.134    18.869999999999997 41.653   0.03     0                        
G72R646_8144     rg5425           G72R646          0.13699999999999998 35.190000000000005 51.301   0.03     0                        
G72R647_8145     rg5425           G72R647          0.025    66.41    72.714   0.03     0                        
G72R648_8146     rg5425           G72R648          0.112    30.880000000000003 28.468000000000004 0.03     0                        
G72R649_8147     rg5425           G72R649          0.154    44.69    31.594   0.03     0                        
G72R650_8148     rg5425           G72R650          0.354    45.89000000000001 283.565  0.03     0                        
G72R651_8149     rg5425           G72R651          0.132    36.84    27.918000000000006 0.03     0                        
G72R653_8150     rg5425           G72R653          0.336    43.260000000000005 177.903  0.03     0                        
G72F316_7958     rg5425           G72F316          0.055    73.43000000000002 12.944   0.03     0                        
G72F317_7959     rg5425           G72F317          0.198    11.86    22.349   0.03     0                        
G72F317_7960     rg5425           G72F317          0.165    44.39000000000001 18.932   0.03     0                        
G72F317_7961     rg5425           G72F317          0.095    74.94    16.004   0.03     0                        
G72F317_7962     rg5425           G72F317          0.103    33.87    31.615   0.03     0                        
G72F320_7963     rg5425           G72F320          0.077    38.15    11.264   0.03     0                        
G72F320_7964     rg5425           G72F320          0.051    82.47    27.952   0.03     0                        
G72F330_7965     rg5425           G72F330          0.168    34.11    38.339   0.03     0                        
G72F331_7966     rg5425           G72F331          0.078    23.31    17.451   0.03     0                        
G72F332_7967     rg5425           G72F332          0.209    33.13000000000001 53.159   0.03     0                        
G72F333_7968     rg5425           G72F333          0.162    26.94    39.108   0.03     0                        
G72F334_7969     rg5425           G72F334          0.118    40.59    34.304   0.03     0                        
G72F335_7970     rg5425           G72F335          0.154    31.07    156.586  0.03     0                        
G72F336_7971     rg5425           G72F336          0.318    33.4     240.436  0.03     0                        
G72F337_7972     rg5425           G72F337          0.103    21.67    19.265   0.03     0                        
G72F337_7972_1   rg5425           G72F337          0.127    26.030000000000005 30.233   0.03     0                        
G70F105_76812    rg5427           G70F105          1.946    4.21     144.606  0.03     0                        
G70F123_7682     rg5427           G70F123          0.56     26.600000000000005 79.493   0.03     0                        
G70F125_7683     rg5427           G70F125          0.29     21.53    126.287  0.03     0                        
G70F130_7684     rg5427           G70F130          0.093    41.15    12.492   0.03     0                        
G70F143_7685     rg5427           G70F143          0.685    39.67000000000001 204.567  0.03     0                        
G70F160_7686     rg5427           G70F160          0.118    26.690000000000005 38.812   0.03     0                        
G70F161_7687     rg5427           G70F161          0.532    34.12    144.07399999999996 0.03     0                        
G70F162_7688     rg5427           G70F162          0.271    41.28000000000001 98.654   0.03     0                        
G70F163_7689     rg5425           G70F163          0.294    39.27000000000001 257.05400000000003 0.03     0                        
G70F164_7690     rg5425           G70F164          0.313    35.76    65.14399999999999 0.03     0                        
G70F165_7691     rg5425           G70F165          0.366    31.03    244.426  0.03     0                        
G70F166_7692     rg5425           G70F166          0.075    35.730000000000004 19.792   0.03     0                        
G70F210_7693     rg5425           G70F210          0.457    39.00000000000001 107.271  0.03     0                        
G70F211_7694     rg5425           G70F211          0.503    35.11    42.349   0.03     0                        
G70F220_7695     rg5425           G70F220          0.397    34.46000000000001 145.283  0.03     0                        
G70F230_7696     rg5425           G70F230          0.244    29.49    82.988   0.03     0                        
G70F232_7697     rg5425           G70F232          1.008    36.53000000000001 319.934  0.03     0                        
G70F234_7698     rg5425           G70F234          0.568    36.980000000000004 344.185  0.03     0                        
G70F235_7699     rg5425           G70F235          0.261    32.050000000000004 127.892  0.03     0                        
G70F236_7700     rg5425           G70F236          0.154    37.34000000000001 77.396   0.03     0                        
G70F330_7701     rg5427           G70F330          0.365    35.72    184.006  0.03     0                        
G70F331_7702     rg5427           G70F331          0.35200000000000004 30.03    198.46   0.03     0                        
G70F332_7703     rg5427           G70F332          0.409    34.330000000000005 166.759  0.03     0                        
G70F333_7704     rg5427           G70F333          0.174    45.56999999999999 48.31399999999999 0.03     0                        
G70F334_7705     rg5427           G70F334          0.259    38.839999999999996 51.445   0.03     0                        
G70F335_7706     rg5425           G70F335          0.064    83.89    13.258   0.03     0                        
G70F340_7707     rg5427           G70F340          0.86     31.28    350.709  0.03     0                        
G70F341_7708     rg5427           G70F341          0.5579999999999999 4.8100000000000005 56.072   0.03     0                        
G70F370_7709     rg5427           G70F370          0.579    30.25000000000001 214.239  0.03     0                        
G70F371_7710     rg5427           G70F371          0.597    32.51    429.652  0.03     0                        
G70F373_7711     rg5427           G70F373          0.376    42.029999999999994 319.562  0.03     0                        
G70F374_7712     rg5427           G70F374          0.087    39.06999999999999 31.772   0.03     0                        
G70F375_7713     rg5427           G70F379          0.168    35.25000000000001 48.08600000000001 0.03     0                        
G70F377_7714     rg5427           G70F377          0.412    31.819999999999993 731.18   0.03     0                        
G70R193_7763     rg5425           G72F892          0.234    35.7     23.078000000000007 0.03     0                        
G70R261_7775     rg5427           G70F121          0.136    31.159999999999997 28.045   0.03     0                        
G70R262_7776     rg5427           G70F122          0.213    23.15    34.852   0.03     0                        
G71F041_7827     rg5425           G71F041          0.225    26.81    24.014   0.03     0                        
G71F041_7828     rg5425           G71F041          0.145    69.25000000000001 24.906   0.03     0                        
G71F046_7829     rg5425           G71F046          0.098    58.95000000000001 8.365    0.03     0                        
G71F047_7830     rg5425           G71F047          0.5670000000000001 18.480000000000004 168.726  0.03     0                        
G71F057_7831     rg5427           G71F058          0.029    0.27     7.122999999999998 0.03     0                        
G71F057_7832     rg5427           G71F058          0.104    76.59000000000002 34.016   0.03     0                        
G71F057_7833     rg5427           G71F058          0.018000000000000002 8.880000000000003 4.772    0.03     0                        
G71F058_7834     rg5427           G71F058          0.114    26.81    30.126   0.03     0                        
G71F058_7835     rg5427           G71F058          0.027000000000000003 27.96    9.986    0.03     0                        
G71F090_7836     rg5425           G71F090          0.232    4.42     48.167   0.03     0                        
G71F090_7836_1   rg5425           G71F090          0.289    13.989999999999998 53.733   0.03     0                        
G71F090_7837     rg5425           G71F090          0.105    59.68999999999999 32.381   0.03     0                        
G71F100_7838     rg5425           G71F100          0.139    0.03     36.718   0.03     0                        
G71F100_7838_1   rg5425           G71F100          0.223    12.609999999999998 24.052   0.03     0                        
G71F100_7839     rg5425           G71F100          0.069    58.68    19.13    0.03     0                        
G71F110_7840     rg5425           G71F110          0.129    17.47    31.107   0.03     0                        
G71F110_7840_1   rg5425           G71F110          0.245    22.009999999999998 30.595   0.03     0                        
G71F110_7841     rg5425           G71F110          0.08800000000000001 64.88    22.353   0.03     0                        
G71F110_7842     rg5425           G71F110          0.013    64.74    3.152    0.03     0                        
G71F120_7843     rg5425           G71F120          0.02     17.92    12.742   0.03     0                        
G71F120_7843_1   rg5425           G71F120          0.4270000000000001 32.080000000000005 59.104   0.03     0                        
G71F120_7844     rg5425           G71F120          0.128    72.61000000000001 73.49    0.03     0                        
G71F121_7845     rg5425           G71F121          0.643    40.79    289.91   0.03     0                        
G71F122_7846     rg5425           G71F122          0.241    23.999999999999996 63.951   0.03     0                        
G71F123_7847     rg5425           G71F123          0.376    23.93    70.865   0.03     0                        
G71F125_7848     rg5425           G71F125          0.7859999999999999 21.250000000000004 343.759  0.03     0                        
G71F126_7849     rg5425           G71F126          0.282    27.590000000000003 94.604   0.03     0                        
G71F127_7850     rg5425           G71F127          0.265    23.52    88.934   0.03     0                        
G71F128_7851     rg5425           G71F128          0.237    21.770000000000007 75.771   0.03     0                        
G71F12P_7852     rg5427           G71F12P          0.721    48.37    53.981   0.03     0                        
G71F140_7853     rg5425           G71F140          0.397    36.54    247.08   0.03     0                        
G71F141_7854     rg5425           G71F141          0.28600000000000003 31.22    113.956  0.03     0                        
G71F142_7855     rg5425           G71F142          0.395    40.68000000000001 112.543  0.03     0                        
G71F143_7856     rg5425           G71F143          0.243    29.12    91.108   0.03     0                        
G71F144_7857     rg5425           G71F144          0.78     25.56    185.238  0.03     0                        
G71F145_7858     rg5425           G71F145          0.445    24.9     107.913  0.03     0                        
G71F146_7859     rg5425           G71F146          0.252    19.45    75.249   0.03     0                        
G71F147_7860     rg5425           G71F147          0.168    26.600000000000005 394.025  0.03     0                        
G71F148_7861     rg5425           G71F148          0.319    31.36    125.156  0.03     0                        
G71F160_7862     rg5425           G71F160          0.62     36.78000000000001 223.56   0.03     0                        
G71F170_7863     rg5425           G71F170          0.326    43.12    225.812  0.03     0                        
G71F171_7864     rg5425           G71F171          0.602    27.230000000000004 130.00799999999998 0.03     0                        
G71F172_7865     rg5425           G71F172          0.6729999999999999 23.19    68.788   0.03     0                        
G71F174_7866     rg5425           G71F174          0.366    32.050000000000004 230.064  0.03     0                        
G71F175_7867     rg5425           G71F175          0.515    28.390000000000004 376.972  0.03     0                        
G71F176_7868     rg5425           G71F176          0.293    18.84    76.487   0.03     0                        
G71F177_7869     rg5425           G71F177          0.418    35.91    171.4    0.03     0                        
G71F180_7870     rg5425           G71F180          0.418    30.680000000000003 344.865  0.03     0                        
G71F190_7871     rg5425           G71F190          0.473    35.91    135.025  0.03     0                        
G71F200_7872     rg5425           G71F200          0.562    35.46000000000001 75.664   0.03     0                        
G71F300_7873     rg5425           G71F300          0.4970000000000001 35.959999999999994 228.603  0.03     0                        
G71F301_7874     rg5425           G71F301          0.293    37.660000000000004 96.904   0.03     0                        
G71F302_7875     rg5425           G71F302          0.379    34.12    178.65400000000002 0.03     0                        
G71F303_7876     rg5425           G71F303          0.099    34.62    24.721   0.03     0                        
G71F304_7877     rg5425           G71F304          0.229    13.31    67.074   0.03     0                        
G71F305_7878     rg5425           G71F305          0.7070000000000001 34.20000000000001 246.72   0.03     0                        
G71F306_7879     rg5425           G71F306          0.123    40.52000000000001 36.07    0.03     0                        
G71F306_78792    rg5425           G70F335          0.095    24.11    14.367   0.03     0                        
G71F310_7880     rg5425           G71F310          0.504    30.23    477.579  0.03     0                        
G71F311_7881     rg5427           G71F311          0.5660000000000001 26.44    172.055  0.03     0                        
G71F312_7882     rg5427           G71F312          1.042    26.61    302.187  0.03     0                        
G71F313_7883     rg5427           G71F313          0.242    34.12    66.476   0.03     0                        
G71F314_7884     rg5427           G71F314          0.28     25.69    133.93   0.03     0                        
G71F315_7885     rg5425           G71F315          0.322    37.43    299.765  0.03     0                        
G71F360_7886     rg5425           G71F360          0.28300000000000003 24.450000000000003 65.53699999999999 0.03     0                        
G71F360_7887     rg5425           G71F360          0.019    35.980000000000004 5.198    0.03     0                        
G71F370_7888     rg5425           G71F370          0.425    29.070000000000004 158.03799999999995 0.03     0                        
G71F380_7889     rg5425           G71F380          0.254    28.04    165.446  0.03     0                        
G71F390_7890     rg5425           G71F390          0.47     33.73    293.006  0.03     0                        
G71F391_7891     rg5425           G71F391          0.261    29.300000000000004 431.038  0.03     0                        
G71F392_7892     rg5425           G71F392          0.254    30.090000000000003 163.765  0.03     0                        
G71F393_7893     rg5425           G71F393          0.7809999999999999 23.580000000000002 353.311  0.03     0                        
G71F394_7894     rg5425           G71F394          0.248    28.439999999999998 335.3730000000001 0.03     0                        
G71R060_7895     rg5425           G71R070          1.75     41.07000000000001 162.322  0.03     0                        
G71R130_7896     rg5425           G71R130          0.123    76.05    10.403   0.03     0                        
G71R132_7897     rg5425           G71R132          0.129    84.14    9.981    0.03     0                        
G72F011_7902     rg5425           G72F011          0.19     36.65000000000001 43.43    0.03     0                        
G72F011_7903     rg5425           G72F011          0.046    59.720000000000006 15.077   0.03     0                        
G72F012_7904     rg5425           G72F012          0.5870000000000001 21.800000000000004 165.637  0.03     0                        
G72F012_7905     rg5425           G72F012          0.111    66.45    85.05799999999998 0.03     0                        
G72F013_7906     rg5425           G72F013          0.14800000000000002 17.63    36.47    0.03     0                        
G72F013_7907     rg5425           G72F013          0.049    73.98    23.056   0.03     0                        
G72F014_7908     rg5425           G72F014          0.078    13.509999999999998 22.3     0.03     0                        
G72F014_7909     rg5425           G72F014          0.032    72.31000000000002 14.342   0.03     0                        
G72F015_7910     rg5425           G72F015          0.16     24.03    39.294   0.03     0                        
G72F015_7911     rg5425           G72F015          0.052000000000000005 64.55000000000003 45.01300000000001 0.03     0                        
G72F030_7912     rg5425           G72F030          0.049    74.86    112.747  0.03     0                        
G72F710_8051     rg5425           G72F710          0.264    80       42.813999 0.3      0                        
G72F720_8052     rg5425           G72F720          0.362    70       73.622   0.3      0                        
G72F730_8053     rg5425           G72F730          0.396    70       163.134  0.3      0                        
G72F740_8054     rg5425           G72F740          0.177    70       221.482  0.3      0                        
G72F760_8055     rg5425           G72F760          0.46     80       158.483  0.3      0                        
G72F766_8056     rg5425           G72F766          0.219    70       1011.794 0.3      0                        
G72F767_8057     rg5425           G72F767          0.116    70       38.806   0.3      0                        
G72F768_8058     rg5425           G72F768          0.152    30.68    51.951   0.03     0                        
G72F770_8059     rg5425           G72F770          0.4970000000000001 40.97    310.39   0.03     0                        
G72F771_8060     rg5425           G72F771          0.425    40.25000000000001 290.272  0.03     0                        
G72F771_80602    rg5425           G70F236          0.071    32.720000000000006 14.23    0.03     0                        
G72F773_8061     rg5425           G72F773          0.326    26.469999999999995 320.757  0.03     0                        
G72F774_8062     rg5425           G72F774          0.239    27.820000000000004 89.551   0.03     0                        
G72F810_8063     rg5425           G72F810          0.452    38.32    214.154  0.03     0                        
G72F812_8064     rg5425           G72F812          0.174    33.06999999999999 64.131   0.03     0                        
G72F813_8065     rg5425           G72F813          0.32     32.89    112.479  0.03     0                        
G73F360_8232     rg5425           G73F360          0.316    10.710000000000003 91.379   0.03     0                        
G73F361_8233     rg5425           G73F361          0.6559999999999999 14.379999999999999 251.643  0.03     0                        
G73F363_8234     rg5425           G73F363          0.26     22.640000000000004 137.065  0.03     0                        
G73F363_8235     rg5425           G73F363          0.11     19.069999999999997 13.807   0.03     0                        
G73F363_8236     rg5425           G73F363          0.047    17.81    3.881    0.03     0                        
G73F381_8237     rg5425           G73F381          0.243    29.54    40.682   0.03     0                        
G73F382_8238     rg5425           G73F382          0.299    37.78999999999999 56.268   0.03     0                        
G73F385_8239     rg5425           G73F385          0.4970000000000001 16.160000000000004 66.567   0.03     0                        
G73F400_8240     rg5425           G73F400          0.593    16.3     547.536  0.03     0                        
G73F410_8241     rg5425           G73F410          0.565    17.92    153.68   0.03     0                        
G73F420_8242     rg5425           G73F420          0.301    16.710000000000004 77.181   0.03     0                        
G73F430_8243     rg5425           G73F430          1.247    5.080000000000001 46.457   0.03     0                        
G73F500_8244     rg5425           G73F500          0.22     27.850000000000005 88.88799999999998 0.03     0                        
G73F510_8245     rg5425           G73F510          0.247    32.42    86.288   0.03     0                        
G73F510_8246     rg5425           G73F510          0.063    62.41999999999999 71.785   0.03     0                        
G73F520_8247     rg5425           G73F520          0.146    32.45    46.548   0.03     0                        
G72F040_7913     rg5425           G72F040          0.264    43.49000000000001 31.684   0.03     0                        
G72F040_7914     rg5425           G72F040          0.036000000000000004 69.35    118.148  0.03     0                        
G72F050_7915     rg5425           G72F050          0.163    58.78    22.729   0.03     0                        
G72F060_7916     rg5425           G72F060          0.305    57.69    30.659   0.03     0                        
G72F062_7917     rg5425           G72F062          0.483    49.67    77.964   0.03     0                        
G72F067_7918     rg5425           G72F067          0.135    46.059999999999995 36.572   0.03     0                        
G72F068_7919     rg5425           G72F068          0.929    7.690000000000001 67.762   0.03     0                        
G72F069_7920     rg5425           G72F069          0.307    30.82    40.203   0.03     0                        
G72F070_7921     rg5425           G72F070          0.121    78.76000000000002 547.78   0.03     0                        
G72F071_7922     rg5425           G72F071          0.14800000000000002 31.550000000000004 51.885   0.03     0                        
G72F080_7923     rg5425           G72F080          0.82     21.05    67.327   0.03     0                        
G72F080_7924     rg5425           G72F080          0.051    80.82    25.653   0.03     0                        
G72F082_7925     rg5425           G72F082          0.603    34.75    68.722   0.03     0                        
G72F083_7926     rg5425           G72F083          0.528    35.87    50.537   0.03     0                        
G72F084_7927     rg5425           G72F084          0.294    21.600000000000005 49.306   0.03     0                        
G72F086_7928     rg5425           G72F086          0.201    20.380000000000003 31.154   0.03     0                        
G72F090_7929     rg5425           G72F090          0.095    77.07    95.583   0.03     0                        
G72F091_7930     rg5425           G72F091          0.407    22.86    236.543  0.03     0                        
G72F092_7931     rg5425           G72F092          0.191    24.019999999999996 66.561   0.03     0                        
G72F093_7932     rg5425           G72F093          0.505    44.989999999999995 143.81   0.03     0                        
G72F095_7933     rg5425           G72F095          0.405    25.339999999999996 45.75    0.03     0                        
G72F100_7934     rg5425           G72F100          0.09     67.27    97.038   0.03     0                        
G72F101_7935     rg5425           G72F101          0.063    7.91     43.289   0.03     0                        
G72F110_7936     rg5425           G72F110          0.064    0.2300000000000001 11.503   0.03     0                        
G72F110_7936_1   rg5425           G72F110          0.029    40.31999999999999 11.297   0.03     0                        
G72F120_7937     rg5425           G72F120          0.318    47.78000000000001 68.85300000000001 0.03     0                        
G72F250_7938     rg5425           G72F250          0.194    18.86    33.068000000000005 0.03     0                        
G72F252_7939     rg5425           G72F252          0.47     31.56    78.499   0.03     0                        
G72F252_7940     rg5425           G72F252          0.691    20.400000000000002 104.002  0.03     0                        
G72F253_7941     rg5425           G72F253          0.084    44.77    17.203   0.03     0                        
G72F260_7942     rg5425           G72F260          0.038    73.23000000000002 4.329    0.03     0                        
G72F260_7943     rg5425           G72F260          0.116    77.92    81.318   0.03     0                        
G72F280_7944     rg5425           G72F280          0.064    74.46000000000001 14.203   0.03     0                        
G72F281_7945     rg5425           G72F281          0.087    45.23    24.7     0.03     0                        
G72F290_7946     rg5425           G72F290          0.438    34.14    47.898   0.03     0                        