<?xml version="1.0" encoding="UTF-8" standalone="no"?><configuration>
	<input>
		<net-file value="BuenosAires.net.xml"/>
		<route-files value="BuenosAires.rou.xml"/>
	<additional-files value="mosaic_types.add.xml"/></input>
	<time>
		<begin value="0"/>
		<end value="1000"/>
	</time>
</configuration>