<?xml version="1.0" encoding="UTF-8" standalone="no"?>
<routes>
    <vType accel="2.60" carFollowModel="Krauss" decel="4.50" emergencyDecel="4.50" id="Car" length="4.00" maxSpeed="70.00" minGap="2.50" sigma="0.50" speedDev="0.0" speedFactor="1.00" tau="1.00" vClass="passenger"/>
</routes>
